Version 4
SHEET 1 4156 1252
WIRE 1504 544 1472 544
WIRE 1600 544 1584 544
WIRE 1632 544 1600 544
WIRE 1744 544 1712 544
WIRE 1760 544 1744 544
WIRE 1840 544 1824 544
WIRE 1856 544 1840 544
WIRE 1936 576 1936 560
WIRE 2032 576 2032 560
WIRE 1600 640 1600 544
WIRE 1760 640 1600 640
WIRE 1600 656 1600 640
WIRE 1856 656 1856 544
WIRE 1856 656 1824 656
WIRE 1760 672 1744 672
WIRE 1936 672 1936 656
WIRE 2032 672 2032 656
WIRE 1600 736 1600 720
WIRE 1856 736 1856 720
FLAG 1936 672 0
FLAG 2032 672 0
FLAG 1936 560 +V
FLAG 1792 624 +V
FLAG 2032 560 -V
FLAG 1792 688 -V
FLAG 1744 672 0
FLAG 1472 544 0
FLAG 1856 736 0
FLAG 1600 736 0
FLAG 1840 544 A
FLAG 1744 544 B
SYMBOL Opamps\\UniversalOpamp2 1792 656 R0
SYMATTR InstName U1
SYMBOL voltage 1936 560 R0
SYMATTR InstName V1
SYMATTR Value 5
SYMBOL voltage 2032 560 R0
SYMATTR InstName V2
SYMATTR Value -5
SYMBOL res 1728 528 R90
WINDOW 0 0 56 VBottom 2
WINDOW 3 32 56 VTop 2
SYMATTR InstName R1
SYMATTR Value 10K
SYMBOL res 1600 528 R90
WINDOW 0 0 56 VBottom 2
WINDOW 3 32 56 VTop 2
SYMATTR InstName R2
SYMATTR Value 1K
SYMBOL fra 1760 544 R90
WINDOW 0 -19 -26 VBottom 2
SYMATTR InstName @1
SYMATTR SpiceLine delay=100u fstart=100 fend=10Meg oct=4 fcoarse=10k nmax=50k 3 500k 1 pp0=5 pp1=0.5 f0=50k f1=500k tavgmin=100u tsettle=2u
SYMATTR SpiceLine2 acmag=50
SYMBOL cap 1840 656 R0
SYMATTR InstName C1
SYMATTR Value 2n
SYMBOL cap 1584 656 R0
SYMATTR InstName C2
SYMATTR Value 100p
TEXT 2200 560 Left 2 !.fra
TEXT 2112 592 Left 2 ;.ac oct 4 100 10Meg
TEXT 1888 288 Center 2 ;This example shows the basic principle of extracting\nthe small signal AC characteristics from an \nLTspice Frequency Response Analysis (FRA) simulation.
TEXT 1576 392 Left 2 ;To use this technique in your own simulations,\n include an fra device and the .fra directive.\nThe fra device controls the frequency analysis parameters.
LINE Normal 1680 672 1680 672 2
LINE Normal 1680 672 1680 672 2
LINE Normal 2128 752 2128 752 2
LINE Normal 2128 752 2128 752 2
LINE Normal 2128 752 2128 752 2
LINE Normal 2128 752 2128 752 2
LINE Normal 1712 464 1760 512 2
LINE Normal 1648 656 1648 656 2
