Version 4
SHEET 1 880 680
WIRE 96 64 32 64
WIRE 144 64 96 64
WIRE -144 80 -144 48
WIRE 608 80 608 64
WIRE 32 96 32 64
WIRE 576 96 544 96
WIRE 736 112 640 112
WIRE 768 112 736 112
WIRE 144 128 144 64
WIRE 224 128 144 128
WIRE 320 128 304 128
WIRE 576 128 320 128
WIRE 736 144 736 112
WIRE 320 160 320 128
WIRE 544 160 544 96
WIRE 608 160 608 144
WIRE -272 192 -272 160
WIRE -144 192 -144 160
WIRE 32 192 32 176
WIRE 32 192 -144 192
WIRE -144 224 -144 192
WIRE 320 240 320 224
WIRE 544 256 544 240
WIRE 736 256 736 224
WIRE 736 256 544 256
WIRE 736 272 736 256
WIRE -272 304 -272 272
WIRE -144 336 -144 288
WIRE 736 368 736 352
FLAG -144 336 0
FLAG -272 304 0
FLAG -272 160 15V
FLAG 96 64 ref_out
FLAG 736 368 0
FLAG 320 240 0
FLAG 608 160 0
FLAG 608 64 15V
FLAG 768 112 out
FLAG -144 48 15V
SYMBOL voltage -272 176 R0
WINDOW 123 0 0 Left 0
WINDOW 39 0 0 Left 0
SYMATTR InstName V1
SYMATTR Value 15
SYMBOL voltage 32 80 R0
WINDOW 123 0 0 Left 0
WINDOW 39 0 0 Left 0
SYMATTR InstName V2
SYMATTR Value 0
SYMBOL res 720 128 R0
SYMATTR InstName R1
SYMATTR Value 15k
SYMBOL res 720 256 R0
SYMATTR InstName R2
SYMATTR Value 10k
SYMBOL voltage 544 144 M0
WINDOW 123 0 0 Left 0
WINDOW 39 0 0 Left 0
SYMATTR InstName V3
SYMATTR Value 0
SYMBOL res 320 112 R90
WINDOW 0 0 56 VBottom 2
WINDOW 3 32 56 VTop 2
SYMATTR InstName R3
SYMATTR Value 10k
SYMBOL cap 304 160 R0
SYMATTR InstName C1
SYMATTR Value 100n
SYMBOL OpAmps\\LT1028 608 48 R0
SYMATTR InstName U2
SYMBOL References\\LT1389-4.096 -144 256 R0
SYMATTR InstName U1
SYMBOL res -160 64 R0
SYMATTR InstName R4
SYMATTR Value 4k7
TEXT 176 336 Left 2 !.op
TEXT 184 368 Left 2 !.option noopiter
